Version 4
SHEET 1 2956 680
WIRE 448 -272 160 -272
WIRE 624 -272 448 -272
WIRE 720 -256 656 -256
WIRE 832 -256 784 -256
WIRE 656 -208 656 -256
WIRE 752 -208 656 -208
WIRE 832 -208 832 -256
WIRE 160 -192 160 -272
WIRE 192 -192 160 -192
WIRE 224 -192 192 -192
WIRE 336 -192 304 -192
WIRE 368 -192 336 -192
WIRE 448 -192 448 -272
WIRE 448 -192 432 -192
WIRE 496 -192 448 -192
WIRE 544 -192 496 -192
WIRE 624 -192 624 -272
WIRE 464 -144 496 -192
WIRE 560 -144 496 -144
WIRE 336 -128 336 -192
WIRE 704 -128 336 -128
WIRE 448 -112 448 -192
WIRE 656 -112 656 -208
WIRE 672 -112 656 -112
WIRE 832 -96 832 -208
WIRE 832 -96 736 -96
WIRE 976 -96 832 -96
WIRE 304 -80 304 -192
WIRE 560 -80 560 -144
WIRE 560 -80 480 -80
WIRE 672 -80 560 -80
WIRE 624 -64 624 -192
WIRE 704 -64 624 -64
WIRE 368 -16 368 -192
WIRE 512 -16 512 -112
WIRE 512 -16 368 -16
WIRE 192 32 192 -192
WIRE 304 32 304 0
WIRE 304 32 272 32
WIRE 304 64 304 32
WIRE 512 64 304 64
WIRE 576 64 576 -112
FLAG 976 -96 Vout
IOPIN 976 -96 Out
FLAG 160 -192 Vin
IOPIN 160 -192 In
SYMBOL voltage 320 -192 R90
WINDOW 123 0 0 Left 2
WINDOW 39 0 0 Left 2
SYMATTR InstName VCC
SYMATTR Value 5
SYMBOL voltage 288 32 R90
WINDOW 0 -32 56 VBottom 2
WINDOW 3 32 56 VTop 2
WINDOW 123 0 0 Left 2
WINDOW 39 0 0 Left 2
SYMATTR InstName Microphone
SYMATTR Value PWL(0 0 0.2 0.01 0.3 0.02 0.5 0.05 1 0)
SYMBOL res 288 -96 R0
SYMATTR InstName R1
SYMATTR Value 10000
SYMBOL res 672 -128 R90
WINDOW 0 0 56 VBottom 2
WINDOW 3 32 56 VTop 2
SYMATTR InstName R4
SYMATTR Value 330
SYMBOL res 848 -224 R90
WINDOW 0 0 56 VBottom 2
WINDOW 3 32 56 VTop 2
SYMATTR InstName R5
SYMATTR Value 660
SYMBOL res 464 -176 M270
WINDOW 0 32 56 VTop 2
WINDOW 3 0 56 VBottom 2
SYMATTR InstName R2
SYMATTR Value 470
SYMBOL res 640 -208 R90
WINDOW 0 0 56 VBottom 2
WINDOW 3 32 56 VTop 2
SYMATTR InstName R3
SYMATTR Value 330
SYMBOL cap 576 48 R90
WINDOW 0 0 32 VBottom 2
WINDOW 3 32 32 VTop 2
SYMATTR InstName C1
SYMATTR Value 100nF
SYMBOL Opamps\\opamp2 544 -112 R90
SYMATTR InstName U1
SYMATTR Value LM324
SYMBOL Opamps\\opamp2 704 -160 R0
SYMATTR InstName U2
SYMATTR Value LM324
SYMBOL cap 784 -272 R90
WINDOW 0 0 32 VBottom 2
WINDOW 3 32 32 VTop 2
SYMATTR InstName FilterCap
SYMATTR Value 500µF
TEXT 360 -368 Left 2 !.lib LM324.ti.lib
TEXT 2096 -1152 Left 2 ;Woah, apparently u can doo kule stufe with this
TEXT 2080 -1064 Left 2 ;It seems theres a way in spice to connect things remotely to neaten things up
TEXT 2088 -1000 Left 2 ;Don't know how tho
