Version 4
SHEET 1 880 680
WIRE 368 -192 -80 -192
WIRE -80 -112 -80 -192
WIRE -80 -112 -128 -112
WIRE 64 -112 0 -112
WIRE 112 -112 64 -112
WIRE 320 -112 192 -112
WIRE -64 -48 -80 -48
WIRE -128 -16 -128 -48
WIRE -80 -16 -128 -16
WIRE -64 -16 -64 -48
WIRE -64 -16 -80 -16
WIRE -80 64 -80 -16
WIRE 0 80 0 -112
WIRE 32 80 0 80
WIRE 320 80 320 -112
WIRE 320 80 256 80
WIRE 0 144 -80 144
WIRE 32 144 0 144
WIRE 144 144 32 144
WIRE 368 144 368 -192
WIRE 368 144 256 144
WIRE 480 160 480 64
WIRE 144 208 144 144
WIRE 240 208 144 208
WIRE 416 208 368 208
WIRE 112 224 32 208
WIRE 112 240 112 224
WIRE 160 240 288 208
WIRE 160 240 112 240
WIRE 336 272 320 272
WIRE 480 272 480 256
WIRE 480 272 336 272
WIRE 112 352 112 240
WIRE 64 384 64 -112
WIRE 336 384 336 272
WIRE 336 384 64 384
FLAG 112 -112 0
FLAG 480 64 12vPwm
IOPIN 480 64 Out
SYMBOL Misc\\NE555 144 176 R0
SYMATTR InstName U1
SYMBOL voltage 208 -112 R90
WINDOW 0 -32 56 VBottom 2
WINDOW 3 32 56 VTop 2
WINDOW 123 0 0 Left 2
WINDOW 39 0 0 Left 2
SYMATTR InstName V1
SYMATTR Value 5
SYMBOL res 16 -128 R90
WINDOW 0 0 56 VBottom 2
WINDOW 3 32 56 VTop 2
SYMATTR InstName R1
SYMATTR Value 500
SYMBOL diode -96 -112 R0
SYMATTR InstName D1
SYMATTR Value 1N4148
SYMBOL diode -112 -48 R180
WINDOW 0 24 64 Left 2
WINDOW 3 24 0 Left 2
SYMATTR InstName D2
SYMATTR Value 1N4148
SYMBOL cap 320 256 R90
WINDOW 0 0 32 VBottom 2
WINDOW 3 32 32 VTop 2
SYMATTR InstName C1
SYMATTR Value 100µF
SYMBOL npn 416 160 R0
SYMATTR InstName Q1
SYMATTR Value 2N2222
SYMBOL res 384 192 R90
WINDOW 0 0 56 VBottom 2
WINDOW 3 32 56 VTop 2
SYMATTR InstName R2
SYMATTR Value 500
SYMBOL res -96 48 R0
SYMATTR InstName R3
SYMATTR Value 5K
SYMBOL cap -16 80 R0
SYMATTR InstName C2
SYMATTR Value 100µF
TEXT -222 390 Left 2 !.tran 20mS
